Australia full region:
 Data from 20040101 - 20150101
 Mirador OMHCHOv003 dataset spatially subset to Australia:
 [50S, 100E, 5S, 170E] 

omhchog: 

GEOS-Chem grid box: -36, 147.5, -32, 152.5

Larger NSW region: -38, 145, -30, 153
